@[MODPATH-PLOT Version 4.00 (V4, Release 3, 7-2003)]
* TO REDEFINE SETTINGS, ENTER NAME OF FILE WITH SETTINGS DATA:
* ( <CR> = USE DEFAULT SETTINGS FOR DEVICE)
@RESPONSE:          
 
* ENTER THE NAME FILE:
@RESPONSE:          
DEMO-S1.MPN
* ENTER TITLE (80 CHARACTERS OR LESS):
@RESPONSE:          
 
