@ [ MODPATH Version 4.00 (V4, Release 3, 7-2003) (TREF=   0.000000E+00 ) ]
      1  1.18020E+04  1.58250E+04  9.99000E-01  8.22142E+02  0.00000E+00  119  149    1       1
      1  1.18000E+04  1.58109E+04  9.99000E-01  8.22142E+02  1.75108E+10  118  149    1       1
      1  1.17985E+04  1.58000E+04  9.99000E-01  8.23702E+02  3.05810E+10  118  150    1       1
      1  1.17921E+04  1.57000E+04  9.99000E-01  8.24552E+02  1.48659E+11  118  151    1       1
      1  1.17942E+04  1.56000E+04  9.99000E-01  8.25482E+02  2.65514E+11  118  152    1       1
      1  1.18000E+04  1.55215E+04  9.99000E-01  8.26442E+02  3.57270E+11  119  152    1       1
      1  1.18017E+04  1.55000E+04  9.99000E-01  8.24852E+02  3.83714E+11  119  153    1       1
      1  1.18131E+04  1.54000E+04  9.99000E-01  8.25852E+02  5.06251E+11  119  154    1       1
      1  1.18270E+04  1.53000E+04  9.99000E-01  8.26752E+02  6.28653E+11  119  155    1       1
      1  1.18447E+04  1.52000E+04  9.99000E-01  8.27542E+02  7.51574E+11  119  156    1       1
      1  1.18661E+04  1.51000E+04  9.99000E-01  8.28272E+02  8.74602E+11  119  157    1       1
      1  1.18850E+04  1.50000E+04  9.99000E-01  8.28892E+02  9.97811E+11  119  158    1       1
      1  1.18977E+04  1.49000E+04  9.99000E-01  8.29332E+02  1.12225E+12  119  159    1       1
      1  1.19000E+04  1.48706E+04  9.99000E-01  8.29732E+02  1.15916E+12  120  159    1       1
      1  1.19057E+04  1.48000E+04  9.99000E-01  8.28662E+02  1.25055E+12  120  160    1       1
      1  1.19070E+04  1.47000E+04  9.99000E-01  8.29162E+02  1.37750E+12  120  161    1       1
      1  1.19004E+04  1.46000E+04  9.99000E-01  8.29712E+02  1.50172E+12  120  162    1       1
      1  1.19000E+04  1.45973E+04  9.99000E-01  8.30272E+02  1.50505E+12  119  162    1       1
      1  1.18860E+04  1.45000E+04  9.99000E-01  8.31702E+02  1.62315E+12  119  163    1       1
      1  1.18695E+04  1.44000E+04  9.99000E-01  8.32812E+02  1.74155E+12  119  164    1       1
      1  1.18464E+04  1.43000E+04  9.99000E-01  8.34072E+02  1.85911E+12  119  165    1       1
      1  1.18214E+04  1.42000E+04  9.99000E-01  8.35352E+02  1.97447E+12  119  166    1       1
      1  1.18063E+04  1.41000E+04  9.99000E-01  8.36612E+02  2.08735E+12  119  167    1       1
      1  1.18013E+04  1.40000E+04  9.99000E-01  8.37812E+02  2.19654E+12  119  168    1       1
      1  1.18010E+04  1.39000E+04  9.99000E-01  8.38932E+02  2.29826E+12  119  169    1       1
      1  1.18000E+04  1.38864E+04  9.99000E-01  8.39912E+02  2.31142E+12  118  169    1       1
      1  1.17940E+04  1.38000E+04  9.99000E-01  8.41562E+02  2.39361E+12  118  170    1       1
      1  1.17840E+04  1.37000E+04  9.99000E-01  8.42482E+02  2.48039E+12  118  171    1       1
      1  1.17802E+04  1.36000E+04  9.99000E-01  8.43342E+02  2.55828E+12  118  172    1       1
      1  1.17831E+04  1.35000E+04  9.99000E-01  8.44132E+02  2.63103E+12  118  173    1       1
      1  1.17899E+04  1.34000E+04  9.99000E-01  8.44812E+02  2.70180E+12  118  174    1       1
      1  1.17977E+04  1.33000E+04  9.99000E-01  8.45392E+02  2.77121E+12  118  175    1       1
      1  1.18000E+04  1.32745E+04  9.99000E-01  8.45862E+02  2.78862E+12  119  175    1       1
      1  1.18069E+04  1.32000E+04  9.99000E-01  8.44672E+02  2.84086E+12  119  176    1       1
      1  1.18185E+04  1.31000E+04  9.99000E-01  8.45112E+02  2.91105E+12  119  177    1       1
      1  1.18316E+04  1.30000E+04  9.99000E-01  8.45482E+02  2.98102E+12  119  178    1       1
      1  1.18459E+04  1.29000E+04  9.99000E-01  8.45822E+02  3.05112E+12  119  179    1       1
      1  1.18612E+04  1.28000E+04  9.99000E-01  8.46182E+02  3.12181E+12  119  180    1       1
      1  1.18771E+04  1.27000E+04  9.99000E-01  8.46562E+02  3.19358E+12  119  181    1       1
      1  1.18948E+04  1.26000E+04  9.99000E-01  8.46982E+02  3.26678E+12  119  182    1       1
      1  1.19000E+04  1.25740E+04  9.99000E-01  8.47442E+02  3.28611E+12  120  182    1       1
      1  1.19159E+04  1.25000E+04  9.99000E-01  8.46262E+02  3.34461E+12  120  183    1       1
      1  1.19399E+04  1.24000E+04  9.99000E-01  8.46762E+02  3.42425E+12  120  184    1       1
      1  1.19676E+04  1.23000E+04  9.99000E-01  8.47322E+02  3.50427E+12  120  185    1       1
      1  1.19991E+04  1.22000E+04  9.99000E-01  8.47892E+02  3.58460E+12  120  186    1       1
      1  1.20000E+04  1.21974E+04  9.99000E-01  8.48432E+02  3.58667E+12  121  186    1       1
      1  1.20344E+04  1.21000E+04  9.99000E-01  8.47302E+02  3.66667E+12  121  187    1       1
      1  1.20708E+04  1.20000E+04  9.99000E-01  8.47822E+02  3.74756E+12  121  188    1       1
      1  1.21000E+04  1.19228E+04  9.99000E-01  8.48262E+02  3.80933E+12  122  188    1       1
      1  1.21084E+04  1.19000E+04  9.99000E-01  8.47112E+02  3.82733E+12  122  189    1       1
      1  1.21460E+04  1.18000E+04  9.99000E-01  8.47462E+02  3.90390E+12  122  190    1       1
      1  1.21833E+04  1.17000E+04  9.99000E-01  8.47772E+02  3.97891E+12  122  191    1       1
      1  1.22000E+04  1.16501E+04  9.99000E-01  8.48052E+02  4.01726E+12  123  191    1       1
      1  1.22183E+04  1.16000E+04  9.99000E-01  8.46842E+02  4.05801E+12  123  192    1       1
      1  1.22512E+04  1.15000E+04  9.99000E-01  8.47032E+02  4.14245E+12  123  193    1       1
      1  1.22823E+04  1.14000E+04  9.99000E-01  8.47142E+02  4.23188E+12  123  194    1       1
      1  1.23000E+04  1.13384E+04  9.99000E-01  8.47172E+02  4.28947E+12  124  194    1       1
      1  1.23119E+04  1.13000E+04  9.99000E-01  8.45942E+02  4.32742E+12  124  195    1       1
      1  1.23393E+04  1.12000E+04  9.99000E-01  8.45872E+02  4.42937E+12  124  196    1       1
      1  1.23643E+04  1.11000E+04  9.99000E-01  8.45812E+02  4.53639E+12  124  197    1       1
      1  1.23888E+04  1.10000E+04  9.99000E-01  8.45702E+02  4.64901E+12  124  198    1       1
      1  1.24000E+04  1.09522E+04  9.99000E-01  8.45502E+02  4.70470E+12  125  198    1       1
      1  1.24128E+04  1.09000E+04  9.99000E-01  8.44232E+02  4.76741E+12  125  199    1       1
      1  1.24361E+04  1.08000E+04  9.99000E-01  8.43962E+02  4.89073E+12  125  200    1       1
      1  1.24589E+04  1.07000E+04  9.99000E-01  8.43582E+02  5.01837E+12  125  201    1       1
      1  1.24816E+04  1.06000E+04  9.99000E-01  8.43082E+02  5.15079E+12  125  202    1       1
      1  1.25000E+04  1.05197E+04  9.99000E-01  8.42482E+02  5.26088E+12  126  202    1       1
      1  1.25049E+04  1.05000E+04  9.99000E-01  8.41382E+02  5.28931E+12  126  203    1       1
      1  1.25296E+04  1.04000E+04  9.99000E-01  8.40752E+02  5.43762E+12  126  204    1       1
      1  1.25546E+04  1.03000E+04  9.99000E-01  8.40092E+02  5.59235E+12  126  205    1       1
      1  1.25805E+04  1.02000E+04  9.99000E-01  8.39902E+02  5.75246E+12  126  206    1       1
      1  1.26000E+04  1.01289E+04  9.99000E-01  8.39902E+02  5.86916E+12  127  206    1       1
      1  1.26083E+04  1.01000E+04  9.99000E-01  8.38872E+02  5.91810E+12  127  207    1       1
      1  1.26387E+04  1.00000E+04  9.99000E-01  8.38932E+02  6.08962E+12  127  208    1       1
      1  1.26727E+04  9.90000E+03  9.99000E-01  8.39012E+02  6.26502E+12  127  209    1       1
      1  1.27000E+04  9.82776E+03  9.99000E-01  8.39062E+02  6.39475E+12  128  209    1       1
      1  1.27110E+04  9.80000E+03  9.99000E-01  8.38192E+02  6.44620E+12  128  210    1       1
      1  1.27532E+04  9.70000E+03  9.99000E-01  8.38222E+02  6.63376E+12  128  211    1       1
      1  1.27981E+04  9.60000E+03  9.99000E-01  8.38192E+02  6.82397E+12  128  212    1       1
      1  1.28000E+04  9.59581E+03  9.99000E-01  8.38042E+02  6.83199E+12  129  212    1       1
      1  1.28449E+04  9.50000E+03  9.99000E-01  8.37052E+02  7.01810E+12  129  213    1       1
      1  1.28934E+04  9.40000E+03  9.99000E-01  8.36682E+02  7.21271E+12  129  214    1       1
      1  1.29000E+04  9.38677E+03  9.99000E-01  8.36062E+02  7.23850E+12  130  214    1       1
      1  1.29432E+04  9.30000E+03  9.99000E-01  8.35232E+02  7.40670E+12  130  215    1       1
      1  1.29944E+04  9.20000E+03  9.99000E-01  8.34532E+02  7.60032E+12  130  216    1       1
      1  1.30000E+04  9.18926E+03  9.99000E-01  8.33702E+02  7.62110E+12  131  216    1       1
      1  1.30464E+04  9.10000E+03  9.99000E-01  8.33112E+02  7.79266E+12  131  217    1       1
      1  1.31000E+04  9.00213E+03  9.99000E-01  8.32302E+02  7.98091E+12  132  217    1       1
      1  1.31011E+04  9.00000E+03  9.99000E-01  8.31732E+02  7.98492E+12  132  218    1       1
      1  1.31567E+04  8.90000E+03  9.99000E-01  8.30952E+02  8.17334E+12  132  219    1       1
      1  1.32000E+04  8.82648E+03  9.99000E-01  8.30272E+02  8.31138E+12  133  219    1       1
      1  1.32151E+04  8.80000E+03  9.99000E-01  8.29722E+02  8.35979E+12  133  220    1       1
      1  1.32741E+04  8.70000E+03  9.99000E-01  8.28932E+02  8.54141E+12  133  221    1       1
      1  1.33000E+04  8.65800E+03  9.99000E-01  8.28072E+02  8.61680E+12  134  221    1       1
      1  1.33343E+04  8.60000E+03  9.99000E-01  8.27252E+02  8.71777E+12  134  222    1       1
      1  1.33972E+04  8.50000E+03  9.99000E-01  8.26432E+02  8.88924E+12  134  223    1       1
      1  1.34000E+04  8.49586E+03  9.99000E-01  8.25812E+02  8.89624E+12  135  223    1       1
      1  1.34641E+04  8.40000E+03  9.99000E-01  8.24742E+02  9.05718E+12  135  224    1       1
      1  1.35000E+04  8.34999E+03  9.99000E-01  8.24352E+02  9.13999E+12  136  224    1       1
      1  1.35343E+04  8.30000E+03  9.99000E-01  8.23142E+02  9.22005E+12  136  225    1       1
      1  1.36000E+04  8.20912E+03  9.99000E-01  8.22862E+02  9.36332E+12  137  225    1       1
      1  1.36064E+04  8.20000E+03  9.99000E-01  8.21432E+02  9.37745E+12  137  226    1       1
      1  1.36799E+04  8.10000E+03  9.99000E-01  8.20982E+02  9.53002E+12  137  227    1       1
      1  1.37000E+04  8.07382E+03  9.99000E-01  8.20732E+02  9.56927E+12  138  227    1       1
      1  1.37548E+04  8.00000E+03  9.99000E-01  8.19002E+02  9.67830E+12  138  228    1       1
      1  1.38000E+04  7.94232E+03  9.99000E-01  8.18882E+02  9.76139E+12  139  228    1       1
      1  1.38342E+04  7.90000E+03  9.99000E-01  8.16862E+02  9.82526E+12  139  229    1       1
      1  1.39000E+04  7.82251E+03  9.99000E-01  8.16812E+02  9.93984E+12  140  229    1       1
      1  1.39195E+04  7.80000E+03  9.99000E-01  8.14492E+02  9.97448E+12  140  230    1       1
      1  1.40000E+04  7.70746E+03  9.99000E-01  8.14482E+02  1.01153E+13  141  230    1       1
      1  1.40067E+04  7.70000E+03  9.99000E-01  8.12052E+02  1.01270E+13  141  231    1       1
      1  1.40949E+04  7.60000E+03  9.99000E-01  8.12032E+02  1.02825E+13  141  232    1       1
      1  1.41000E+04  7.59426E+03  9.99000E-01  8.12022E+02  1.02914E+13  142  232    1       1
      1  1.41853E+04  7.50000E+03  9.99000E-01  8.09852E+02  1.04413E+13  142  233    1       1
      1  1.42000E+04  7.48385E+03  9.99000E-01  8.10052E+02  1.04667E+13  143  233    1       1
      1  1.42774E+04  7.40000E+03  9.99000E-01  8.08482E+02  1.06012E+13  143  234    1       1
      1  1.43000E+04  7.37565E+03  9.99000E-01  8.08872E+02  1.06399E+13  144  234    1       1
      1  1.43710E+04  7.30000E+03  9.99000E-01  8.07062E+02  1.07627E+13  144  235    1       1
      1  1.44000E+04  7.26931E+03  9.99000E-01  8.07162E+02  1.08120E+13  145  235    1       1
      1  1.44673E+04  7.20000E+03  9.99000E-01  8.05332E+02  1.09274E+13  145  236    1       1
      1  1.45000E+04  7.16659E+03  9.99000E-01  8.05452E+02  1.09825E+13  146  236    1       1
      1  1.45666E+04  7.10000E+03  9.99000E-01  8.03682E+02  1.10959E+13  146  237    1       1
      1  1.46000E+04  7.06683E+03  9.99000E-01  8.03962E+02  1.11518E+13  147  237    1       1
      1  1.46686E+04  7.00000E+03  9.99000E-01  8.02292E+02  1.12678E+13  147  238    1       1
      1  1.47000E+04  6.96964E+03  9.99000E-01  8.02532E+02  1.13200E+13  148  238    1       1
      1  1.47726E+04  6.90000E+03  9.99000E-01  8.00752E+02  1.14418E+13  148  239    1       1
      1  1.48000E+04  6.87280E+03  9.99000E-01  8.00832E+02  1.14888E+13  149  239    1       1
      1  1.48737E+04  6.80000E+03  9.99000E-01  7.98982E+02  1.16174E+13  149  240    1       1
      1  1.49000E+04  6.77445E+03  9.99000E-01  7.99492E+02  1.16618E+13  150  240    1       1
      1  1.49751E+04  6.70000E+03  9.99000E-01  7.97432E+02  1.17906E+13  150  241    1       1
      1  1.50000E+04  6.67529E+03  9.99000E-01  7.97842E+02  1.18328E+13  151  241    1       1
      1  1.50753E+04  6.60000E+03  9.99000E-01  7.95612E+02  1.19623E+13  151  242    1       1
      1  1.51000E+04  6.57518E+03  9.99000E-01  7.96032E+02  1.20043E+13  152  242    1       1
      1  1.51734E+04  6.50000E+03  9.99000E-01  7.93872E+02  1.21312E+13  152  243    1       1
      1  1.52000E+04  6.47352E+03  9.99000E-01  7.94282E+02  1.21752E+13  153  243    1       1
      1  1.52732E+04  6.40000E+03  9.99000E-01  7.92452E+02  1.22979E+13  153  244    1       1
      1  1.53000E+04  6.37237E+03  9.99000E-01  7.92722E+02  1.23434E+13  154  244    1       1
      1  1.53688E+04  6.30000E+03  9.99000E-01  7.90842E+02  1.24616E+13  154  245    1       1
      1  1.54000E+04  6.26662E+03  9.99000E-01  7.90902E+02  1.25155E+13  155  245    1       1
      1  1.54610E+04  6.20000E+03  9.99000E-01  7.88442E+02  1.26221E+13  155  246    1       1
      1  1.55000E+04  6.15734E+03  9.99000E-01  7.88922E+02  1.26895E+13  156  246    1       1
      1  1.55513E+04  6.10000E+03  9.99000E-01  7.86532E+02  1.27791E+13  156  247    1       1
      1  1.56000E+04  6.04477E+03  9.99000E-01  7.87362E+02  1.28642E+13  157  247    1       1
      1  1.56393E+04  6.00000E+03  9.99000E-01  7.84942E+02  1.29335E+13  157  248    1       1
      1  1.57000E+04  5.92910E+03  9.99000E-01  7.85762E+02  1.30419E+13  158  248    1       1
      1  1.57243E+04  5.90000E+03  9.99000E-01  7.82982E+02  1.30858E+13  158  249    1       1
      1  1.58000E+04  5.80491E+03  9.99000E-01  7.83762E+02  1.32275E+13  159  249    1       1
      1  1.58038E+04  5.80000E+03  9.99000E-01  7.80712E+02  1.32347E+13  159  250    1       1
      1  1.58793E+04  5.70000E+03  9.99000E-01  7.81662E+02  1.33813E+13  159  251    1       1
      1  1.59000E+04  5.67145E+03  9.99000E-01  7.83092E+02  1.34227E+13  160  251    1       1
      1  1.59501E+04  5.60000E+03  9.99000E-01  7.80202E+02  1.35239E+13  160  252    1       1
      1  1.60000E+04  5.52625E+03  9.99000E-01  7.82202E+02  1.36271E+13  161  252    1       1
      1  1.60174E+04  5.50000E+03  9.99000E-01  7.79792E+02  1.36635E+13  161  253    1       1
      1  1.60813E+04  5.40000E+03  9.99000E-01  7.82052E+02  1.38006E+13  161  254    1       1
      1  1.61000E+04  5.36963E+03  9.99000E-01  7.84542E+02  1.38418E+13  162  254    1       1
      1  1.61415E+04  5.30000E+03  9.99000E-01  7.82462E+02  1.39338E+13  162  255    1       1
      1  1.61979E+04  5.20000E+03  9.99000E-01  7.84302E+02  1.40653E+13  162  256    1       1
      1  1.62000E+04  5.19604E+03  9.99000E-01  7.85032E+02  1.40705E+13  163  256    1       1
      1  1.62499E+04  5.10000E+03  9.99000E-01  7.82212E+02  1.41938E+13  163  257    1       1
      1  1.62994E+04  5.00000E+03  9.99000E-01  7.81692E+02  1.43231E+13  163  258    1       1
      1  1.63000E+04  4.99867E+03  9.99000E-01  7.82322E+02  1.43248E+13  164  258    1       1
      1  1.63453E+04  4.90000E+03  9.99000E-01  7.79692E+02  1.44486E+13  164  259    1       1
      1  1.63869E+04  4.80000E+03  9.99000E-01  7.81762E+02  1.45776E+13  164  260    1       1
      1  1.64000E+04  4.76107E+03  9.99000E-01  7.83112E+02  1.46290E+13  165  260    1       1
      1  1.64201E+04  4.70000E+03  9.99000E-01  7.81092E+02  1.47058E+13  165  261    1       1
      1  1.64504E+04  4.60000E+03  9.99000E-01  7.79822E+02  1.48378E+13  165  262    1       1
      1  1.64788E+04  4.50000E+03  9.99000E-01  7.78872E+02  1.49772E+13  165  263    1       1
      1  1.65000E+04  4.41973E+03  9.99000E-01  7.79012E+02  1.50941E+13  166  263    1       1
      1  1.65054E+04  4.40000E+03  9.99000E-01  7.77502E+02  1.51229E+13  166  264    1       1
      1  1.65301E+04  4.30000E+03  9.99000E-01  7.78262E+02  1.52729E+13  166  265    1       1
      1  1.65538E+04  4.20000E+03  9.99000E-01  7.79452E+02  1.54292E+13  166  266    1       1
      1  1.65768E+04  4.10000E+03  9.99000E-01  7.80362E+02  1.55917E+13  166  267    1       1
      1  1.65996E+04  4.00000E+03  9.99000E-01  7.80992E+02  1.57606E+13  166  268    1       1
      1  1.66000E+04  3.99797E+03  9.99000E-01  7.81452E+02  1.57641E+13  167  268    1       1
      1  1.66223E+04  3.90000E+03  9.99000E-01  7.80002E+02  1.59355E+13  167  269    1       1
      1  1.66452E+04  3.80000E+03  9.99000E-01  7.80512E+02  1.61171E+13  167  270    1       1
      1  1.66682E+04  3.70000E+03  9.99000E-01  7.81152E+02  1.63055E+13  167  271    1       1
      1  1.66912E+04  3.60000E+03  9.99000E-01  7.81832E+02  1.64996E+13  167  272    1       1
      1  1.67000E+04  3.56163E+03  9.99000E-01  7.82502E+02  1.65753E+13  168  272    1       1
      1  1.67141E+04  3.50000E+03  9.99000E-01  7.81052E+02  1.66952E+13  168  273    1       1
      1  1.67375E+04  3.40000E+03  9.99000E-01  7.81642E+02  1.68945E+13  168  274    1       1
      1  1.67628E+04  3.30000E+03  9.99000E-01  7.82172E+02  1.70999E+13  168  275    1       1
      1  1.67907E+04  3.20000E+03  9.99000E-01  7.82582E+02  1.73109E+13  168  276    1       1
      1  1.68000E+04  3.16986E+03  9.99000E-01  7.82852E+02  1.73754E+13  169  276    1       1
      1  1.68216E+04  3.10000E+03  9.99000E-01  7.81692E+02  1.75238E+13  169  277    1       1
      1  1.68563E+04  3.00000E+03  9.99000E-01  7.81942E+02  1.77396E+13  169  278    1       1
      1  1.68949E+04  2.90000E+03  9.99000E-01  7.82182E+02  1.79586E+13  169  279    1       1
      1  1.69000E+04  2.88803E+03  9.99000E-01  7.82422E+02  1.79850E+13  170  279    1       1
      1  1.69378E+04  2.80000E+03  9.99000E-01  7.81672E+02  1.81805E+13  170  280    1       1
      1  1.69852E+04  2.70000E+03  9.99000E-01  7.82062E+02  1.84013E+13  170  281    1       1
      1  1.70000E+04  2.67132E+03  9.99000E-01  7.82382E+02  1.84638E+13  171  281    1       1
      1  1.70366E+04  2.60000E+03  9.99000E-01  7.82112E+02  1.86197E+13  171  282    1       1
      1  1.70911E+04  2.50000E+03  9.99000E-01  7.82492E+02  1.88332E+13  171  283    1       1
      1  1.71000E+04  2.48465E+03  9.99000E-01  7.82772E+02  1.88653E+13  172  283    1       1
      1  1.71487E+04  2.40000E+03  9.99000E-01  7.82852E+02  1.90439E+13  172  284    1       1
      1  1.72000E+04  2.31280E+03  9.99000E-01  7.83192E+02  1.92216E+13  173  284    1       1
      1  1.72075E+04  2.30000E+03  9.99000E-01  7.83402E+02  1.92480E+13  173  285    1       1
      1  1.72680E+04  2.20000E+03  9.99000E-01  7.83832E+02  1.94492E+13  173  286    1       1
      1  1.73000E+04  2.14750E+03  9.99000E-01  7.84272E+02  1.95514E+13  174  286    1       1
      1  1.73292E+04  2.10000E+03  9.99000E-01  7.84642E+02  1.96465E+13  174  287    1       1
      1  1.73909E+04  2.00000E+03  9.99000E-01  7.85162E+02  1.98410E+13  174  288    1       1
      1  1.74000E+04  1.98531E+03  9.99000E-01  7.85662E+02  1.98689E+13  175  288    1       1
      1  1.74527E+04  1.90000E+03  9.99000E-01  7.86182E+02  2.00329E+13  175  289    1       1
      1  1.75000E+04  1.82382E+03  9.99000E-01  7.86782E+02  2.01749E+13  176  289    1       1
      1  1.75150E+04  1.80000E+03  9.99000E-01  7.87262E+02  2.02209E+13  176  290    1       1
      1  1.75785E+04  1.70000E+03  9.99000E-01  7.87972E+02  2.04093E+13  176  291    1       1
      1  1.76000E+04  1.66634E+03  9.99000E-01  7.88612E+02  2.04711E+13  177  291    1       1
      1  1.76438E+04  1.60000E+03  9.99000E-01  7.89132E+02  2.05991E+13  177  292    1       1
      1  1.77000E+04  1.51496E+03  9.99000E-01  7.89722E+02  2.07583E+13  178  292    1       1
      1  1.77102E+04  1.50000E+03  9.99000E-01  7.89922E+02  2.07876E+13  178  293    1       1
      1  1.77799E+04  1.40000E+03  9.99000E-01  7.90282E+02  2.09794E+13  178  294    1       1
      1  1.78000E+04  1.37186E+03  9.99000E-01  7.90642E+02  2.10321E+13  179  294    1       1
      1  1.78510E+04  1.30000E+03  9.99000E-01  7.90592E+02  2.11688E+13  179  295    1       1
      1  1.79000E+04  1.23223E+03  9.99000E-01  7.91102E+02  2.12935E+13  180  295    1       1
      1  1.79235E+04  1.20000E+03  9.99000E-01  7.90752E+02  2.13548E+13  180  296    1       1
      1  1.79975E+04  1.10000E+03  9.99000E-01  7.91282E+02  2.15398E+13  180  297    1       1
      1  1.80000E+04  1.09676E+03  9.99000E-01  7.91822E+02  2.15457E+13  181  297    1       1
      1  1.80747E+04  1.00000E+03  9.99000E-01  7.91192E+02  2.17289E+13  181  298    1       1
      1  1.81000E+04  9.67339E+02  9.99000E-01  7.91762E+02  2.17890E+13  182  298    1       1
      1  1.81529E+04  9.00000E+02  9.99000E-01  7.90892E+02  2.19176E+13  182  299    1       1
      1  1.82000E+04  8.39712E+02  9.99000E-01  7.91542E+02  2.20294E+13  183  299    1       1
      1  1.82310E+04  8.00000E+02  9.99000E-01  7.90642E+02  2.21047E+13  183  300    1       1
      1  1.83000E+04  7.10953E+02  9.99000E-01  7.91402E+02  2.22687E+13  184  300    1       1
      1  1.83083E+04  7.00000E+02  9.99000E-01  7.90462E+02  2.22889E+13  184  301    1       1
      1  1.83863E+04  6.00000E+02  9.99000E-01  7.91132E+02  2.24705E+13  184  302    1       1
      1  1.84000E+04  5.82747E+02  9.99000E-01  7.91782E+02  2.25013E+13  185  302    1       1
      1  1.84641E+04  5.00000E+02  9.99000E-01  7.90782E+02  2.26486E+13  185  303    1       1
      1  1.85000E+04  4.53206E+02  9.99000E-01  7.91472E+02  2.27302E+13  186  303    1       1
      1  1.85415E+04  4.00000E+02  9.99000E-01  7.90312E+02  2.28252E+13  186  304    1       1
      1  1.86000E+04  3.22768E+02  9.99000E-01  7.91152E+02  2.29629E+13  187  304    1       1
      1  1.86170E+04  3.00000E+02  9.99000E-01  7.89922E+02  2.30027E+13  187  305    1       1
      1  1.86873E+04  2.00000E+02  9.99000E-01  7.90852E+02  2.31775E+13  187  306    1       1
      1  1.87000E+04  1.82033E+02  9.99000E-01  7.91782E+02  2.32087E+13  188  306    1       1
      1  1.87589E+04  1.00000E+02  9.99000E-01  7.90572E+02  2.33550E+13  188  307    1       1
