@ [ MODPATH Version 4.00 (V4, Release 3, 7-2003) (TREF=   0.000000E+00 ) ]
  1  188  307    1  1.87589E+04  1.00000E+02  7.91382E+02  9.99000E-01  2.33550E+13  1.18020E+04  1.58250E+04  9.99000E-01  119  149    1   1     1     11  0.00000E+00
