1
n
1
pstobj.in
uma4.res
sconc.arr
MT3D001.ucn
MT3D002.ucn
Optdemo.ufh
test1.out