PROJECT
MODFLOW	"457PROJECT_true.mfs"
MODFSOL	"457PROJECT_true.*"
MAT		"457PROJECT_true.mat"
MAP		"457PROJECT_true.map"
SCAT2D	"457PROJECT_true.xy"
DATA	"457PROJECT_true3g.dat"
STNGS	"457PROJECT_true.ini"
