MODSUP
IJK -y +x -z
NAME   99 "457PROJECT_true.mfn"
MT3D   29 "457PROJECT_true.hff"
ORIG 0.0 0.0 0.0
ROTZ 0
LAYER   0       10.000000 (10G15.6)
DMAT 1
MPSC 1 0 -1
MTRN 1 0 -1
MHC 1 0 12
MBE 1 0 17
MLK 1 0 1
MSSC 1 0 0
MTE 1 0 -999
MWDF 1 0 0
INVMOD 0
NOCONVSTP 0
HDRYBOT 0
VCONT1 0
ENDTIME 1/1/1900  0:0:1
REFTIME  s 0 1900 1 1 0 0 0
UNITS "m"	"s"	"kg"	"N"	"mg/l"
USESHEAD 0
