@[MODPATH Version 4.00 (V4, Release 3, 7-2003)]
* ENTER THE NAME FILE:
@RESPONSE:          
DEMO-S1.MPN
