MODPATH Version 4.00 (V4, Release 3, 7-2003)                                    

 FILE UNIT NUMBER  70 HAS BEEN CONNECTED TO <DEMO-S.MP>
 FILE UNIT NUMBER   9 HAS BEEN CONNECTED TO <demo-s.dis>
 ERROR OPENING FILE TO UNIT  10
